*SPEF "1481-1998"
*DESIGN "johnson"
*DATE "Fri Aug 10 10:04:11 2018"
*VENDOR "Synopsys, Inc."
*PROGRAM "icc_shell"
*VERSION "M-2016.12-SP4"
*DESIGN_FLOW "PIN_CAP NONE"
*DIVIDER /
*DELIMITER :
*BUS_DELIMITER [ ]
*T_UNIT 1 NS
*C_UNIT 1 FF
*R_UNIT 1 OHM
*L_UNIT 1 HENRY

*NAME_MAP
*1 out[4]
*2 out[3]
*3 out[2]
*4 out[1]
*5 out[0]
*6 VDD
*7 VSS
*8 SCANOUTPORT
*9 r
*10 clk
*11 SE
*12 SCANINPORT
*13 out[7]
*14 out[6]
*15 out[5]
*16 U1
*17 U14
*18 out_reg\[7\]
*19 n10
*20 U4
*21 U10
*22 n8
*23 out_reg\[6\]
*24 out_reg\[5\]
*25 out_reg\[4\]
*26 out_reg\[3\]
*27 out_reg\[2\]
*28 out_reg\[1\]
*29 out_reg\[0\]
*30 U3
*31 U12
*32 SAEDRVT14_INV_S_20_BC
*33 U11
*34 U8
*35 U7
*36 U6
*37 U5
*38 clk_BC
*39 SAEDRVT14_INV_S_20_BC_1
*40 clk_BC_1
*41 n14
*42 U2
*43 n15
*44 n16
*45 n17
*46 n18
*47 n19
*48 n20
*49 n21
*50 U9
*51 n22
*52 n23

*PORTS
*1 O *L 0.4 *S 0.0 0.0
*2 O *L 0.4 *S 0.0 0.0
*3 O *L 0.4 *S 0.0 0.0
*4 O *L 0.4 *S 0.0 0.0
*5 O *L 0.4 *S 0.0 0.0
*6 I *L 0.0 *S 0.0 0.0
*7 I *L 0.0 *S 0.0 0.0
*8 O *L 0.0 *S 0.0 0.0
*9 I *L 0.0 *S 0.0 0.0
*10 I *L 0.0 *S 0.0 0.0
*11 I *L 0.0 *S 0.0 0.0
*12 I *L 0.0 *S 0.0 0.0
*13 O *L 0.4 *S 0.0 0.0
*14 O *L 0.4 *S 0.0 0.0
*15 O *L 0.4 *S 0.0 0.0

*D_NET *13 1.053742

*CONN
*I *16:A I *L 375.1 *C 1.055 2.012
*I *17:A I *L 381.3 *C 1.129 3.211
*I *18:Q O *L 0.0 *D SAEDRVT14_FSDPRBQ_V2_0P5 *C 1.647 5.603
*P *13 O *C 5.0 6.383
*N *13:5 *C 5.0 6.26
*N *13:6 *C 5.0 6.26
*N *13:7 *C 1.16 6.2
*N *13:8 *C 1.16 6.2
*N *13:9 *C 1.1 3.5
*N *13:10 *C 1.1 3.5
*N *13:11 *C 1.4 3.2
*N *13:12 *C 1.4 3.2
*N *13:13 *C 1.1 2.0
*N *13:14 *C 1.1 2.0
*N *13:15 *C 1.1 2.36
*N *13:16 *C 1.1 2.36
*N *13:17 *C 1.495 5.6
*N *13:18 *C 1.495 5.6
*N *13:19 *C 1.1 5.6
*N *13:20 *C 1.1 5.6
*N *13:21 *C 1.4 3.5
*N *13:22 *C 5.0 5.946

*CAP
1 *16:A 0.008815103
2 *17:A 0.02220407
3 *18:Q 0.02155695
4 *13 0.001824537
5 *13:5 0.01454961
6 *13:6 0.1741112
7 *13:7 0.03383246
8 *13:8 0.1751358
9 *13:9 0.1438481
10 *13:10 0.02101634
11 *13:11 0.02456031
12 *13:12 0.02220407
13 *13:13 0.03059899
14 *13:14 0.008815103
15 *13:15 0.05132872
16 *13:16 0.02821407
17 *13:17 0.03177777
18 *13:18 0.01968679
19 *13:19 0.1253272
20 *13:20 0.03296779
21 *13:21 0.0462568
22 *13:22 0.01511

*RES
1 *13 *13:5 0.00509503
2 *13:5 *13:6 0.6944445
3 *13:7 *13:8 0.6944445
4 *13:9 *13:10 1.388889
5 *13:11 *13:12 2.777778
6 *16:A *13:14 0.4191177
7 *13:13 *13:14 2.777778
8 *13:15 *13:16 0.6944445
9 *18:Q *13:18 0.7544118
10 *13:17 *13:18 1.388889
11 *13:19 *13:20 1.388889
12 *17:A *13:12 0.6970589
13 *13:13 *13:16 0.9992211
14 *13:10 *13:21 0.8119304
15 *13:20 *13:17 1.09995
16 *13:8 *13:6 11.64118
17 *13:11 *13:21 0.782353
18 *13:15 *13:9 3.265852
19 *13:9 *13:19 6.078064
20 *13:19 *13:7 1.544118
21 *13:5 *13:22 0.8413305

*END

*D_NET *19 0.6098101

*CONN
*I *17:X O *L 0.0 *D SAEDRVT14_INV_1 *C 1.055 3.211
*I *20:A I *L 444.9 *C 1.095 2.595
*N *19:3 *C 2.0 2.6
*N *19:4 *C 2.0 2.6
*N *19:5 *C 2.0 2.6
*N *19:6 *C 2.0 2.54
*N *19:7 *C 2.0 2.54
*N *19:8 *C 0.2 2.54
*N *19:9 *C 0.2 2.54
*N *19:10 *C 0.2 2.6
*N *19:11 *C 0.2 2.6
*N *19:12 *C 0.2 2.6
*N *19:13 *C 0.2 3.2
*N *19:14 *C 0.579 2.6
*N *19:15 *C 2.379 2.6

*CAP
1 *17:X 0.03656708
2 *20:A 0.07557753
3 *19:3 0.01947753
4 *19:4 0.07557753
5 *19:5 0.01530947
6 *19:6 0.07800892
7 *19:7 0.01523064
8 *19:8 0.07800892
9 *19:9 0.01497846
10 *19:10 0.01505729
11 *19:11 0.01875298
12 *19:12 0.04555298
13 *19:13 0.08212006
14 *19:14 0.01943312
15 *19:15 0.02015767

*RES
1 *19:3 *19:4 2.777778
2 *19:5 *19:3 1.388889
3 *19:6 *19:7 0.3472223
4 *19:8 *19:9 0.3472223
5 *19:10 *19:11 1.388889
6 *19:11 *19:12 2.777778
7 *19:12 *19:13 1.682062
8 *19:13 *17:X 2.414706
9 *20:A *19:4 2.561765
10 *19:11 *19:14 1.029918
11 *19:3 *19:15 1.029918
12 *19:9 *19:10 0.02857143
13 *19:7 *19:5 0.02857143
14 *19:8 *19:6 2.906929

*END

*D_NET *9 0.4274782

*CONN
*I *21:A I *L 291.6 *C 2.074 4.4
*P *9 I *C 0.017 3.2
*N *9:3 *C 2.0 2.96
*N *9:4 *C 2.0 2.96
*N *9:5 *C 2.0 4.4
*N *9:6 *C 2.0 4.4
*N *9:7 *C 2.074 4.4
*N *9:8 *C 0.2 3.2
*N *9:9 *C 0.2 2.9

*CAP
1 *21:A 0.0
2 *9 0.005689806
3 *9:3 0.07967858
4 *9:4 0.1074516
5 *9:5 0.08035873
6 *9:6 0.00408967
7 *9:7 0.004769815
8 *9:8 0.02115898
9 *9:9 0.124281

*RES
1 *9:3 *9:4 0.6944445
2 *9:5 *9:6 1.388889
3 *9:7 *21:A 2.777778
4 *9 *9:8 0.4539036
5 *9:9 *9:4 5.123529
6 *9:9 *9:8 0.782353
7 *9:6 *9:7 0.1491285
8 *9:3 *9:5 4.149784

*END

*D_NET *22 1.921554

*CONN
*I *18:RD I *L 696.1 *C 2.338 5.556
*I *21:X O *L 0.0 *D SAEDRVT14_INV_S_0P75 *C 2.0 4.4
*I *23:RD I *L 696.1 *C 4.4 5.044
*I *24:RD I *L 696.1 *C 3.62 3.156
*I *25:RD I *L 696.1 *C 2.3 1.444
*I *26:RD I *L 696.1 *C 2.9 1.956
*I *27:RD I *L 696.1 *C 4.615 1.444
*I *28:RD I *L 696.1 *C 5.396 3.844
*I *29:RD I *L 696.1 *C 2.077 3.844
*N *22:10 *C 4.4 5.044
*N *22:11 *C 4.505 5.06
*N *22:12 *C 4.505 5.06
*N *22:13 *C 4.505 4.945
*N *22:14 *C 4.505 4.945
*N *22:15 *C 3.8 2.9
*N *22:16 *C 3.8 2.9
*N *22:17 *C 3.8 2.9
*N *22:18 *C 2.3 2.9
*N *22:19 *C 2.3 2.9
*N *22:20 *C 2.3 5.3
*N *22:21 *C 2.3 5.3
*N *22:22 *C 2.077 3.844
*N *22:23 *C 2.3 1.444
*N *22:24 *C 2.3 4.16
*N *22:25 *C 2.3 4.16
*N *22:26 *C 4.4 2.3
*N *22:27 *C 4.4 2.3
*N *22:28 *C 4.615 1.444
*N *22:29 *C 2.0 4.4
*N *22:30 *C 4.4 4.1
*N *22:31 *C 4.4 4.1
*N *22:32 *C 4.4 2.9
*N *22:33 *C 4.4 2.9
*N *22:34 *C 2.36 2.3
*N *22:35 *C 2.36 2.3
*N *22:36 *C 2.9 2.3
*N *22:37 *C 2.9 2.3
*N *22:38 *C 2.9 1.956
*N *22:39 *C 2.3 4.4
*N *22:40 *C 2.15 5.3
*N *22:41 *C 5.6 4.1
*N *22:42 *C 3.8 2.9
*N *22:43 *C 2.3 3.844
*N *22:44 *C 4.4 1.444

*CAP
1 *18:RD 0.01668555
2 *21:X 0.0
3 *23:RD 0.0
4 *24:RD 0.01507293
5 *25:RD 0.0
6 *26:RD 0.0
7 *27:RD 0.0
8 *28:RD 0.01463498
9 *29:RD 0.0
10 *22:10 0.02294308
11 *22:11 0.03225212
12 *22:12 0.01830493
13 *22:13 0.03225212
14 *22:14 0.0517031
15 *22:15 0.006872121
16 *22:16 0.06687889
17 *22:17 0.07365568
18 *22:18 0.06602458
19 *22:19 0.04203396
20 *22:20 0.05125102
21 *22:21 0.01417509
22 *22:22 0.02599067
23 *22:23 0.03881248
24 *22:24 0.06376946
25 *22:25 0.1447944
26 *22:26 0.03878844
27 *22:27 0.09315228
28 *22:28 0.01996937
29 *22:29 0.01660054
30 *22:30 0.1038199
31 *22:31 0.1937304
32 *22:32 0.05430515
33 *22:33 0.0491383
34 *22:34 0.08092527
35 *22:35 0.02812906
36 *22:36 0.02421276
37 *22:37 0.1209369
38 *22:38 0.02591754
39 *22:39 0.04671426
40 *22:40 0.03154078
41 *22:41 0.09300451
42 *22:42 0.002573604
43 *22:43 0.03986941
44 *22:44 0.0601181

*RES
1 *22:10 *23:RD 1.388889
2 *22:11 *22:12 0.1736111
3 *22:13 *22:14 0.1736111
4 *22:15 *22:16 1.388889
5 *22:17 *22:15 0.3472223
6 *22:18 *22:19 0.3472223
7 *22:20 *22:21 1.388889
8 *22:22 *29:RD 1.388889
9 *22:23 *25:RD 1.388889
10 *22:24 *22:25 0.6944445
11 *22:26 *22:27 1.388889
12 *22:28 *27:RD 1.388889
13 *22:29 *21:X 2.777778
14 *22:30 *22:31 1.388889
15 *22:32 *22:33 0.3472223
16 *22:34 *22:35 0.6944445
17 *22:36 *22:37 0.6944445
18 *22:38 *26:RD 1.388889
19 *22:29 *22:39 0.8119305
20 *22:40 *18:RD 0.8
21 *22:40 *22:21 0.379193
22 *22:25 *22:31 5.955883
23 *22:31 *22:41 3.433489
24 *22:25 *22:39 0.6001555
25 *22:35 *22:37 1.512072
26 *22:37 *22:27 4.31854
27 *22:42 *22:16 0.0001
28 *22:16 *22:33 1.67608
29 *22:16 *24:RD 0.7
30 *28:RD *22:41 0.7029412
31 *22:22 *22:43 0.5691119
32 *22:23 *22:34 2.738236
33 *22:34 *22:19 1.655882
34 *22:43 *22:24 0.8345169
35 *22:24 *22:20 3.261668
36 *22:38 *22:36 0.9532613
37 *22:14 *22:10 0.2911765
38 *22:12 *22:10 0.09705883
39 *22:44 *22:28 0.5460076
40 *22:44 *22:26 2.427352
41 *22:32 *22:30 3.42891
42 *22:30 *22:14 2.376471
43 *22:18 *22:17 2.408201
44 *22:13 *22:11 0.08214287

*END

*D_NET *14 0.7432272

*CONN
*I *23:Q O *L 0.0 *D SAEDRVT14_FSDPRBQ_V2_0P5 *C 4.015 4.997
*I *30:A I *L 444.9 *C 3.833 4.404
*P *14 O *C 6.681 1.7
*N *14:4 *C 4.7 1.7
*N *14:5 *C 4.7 1.7
*N *14:6 *C 4.7 4.4
*N *14:7 *C 4.7 4.4
*N *14:8 *C 4.1 4.4
*N *14:9 *C 4.1 4.4
*N *14:10 *C 3.95 5.0
*N *14:11 *C 3.95 5.0
*N *14:12 *C 3.95 4.4

*CAP
1 *23:Q 0.0176613
2 *30:A 0.03119876
3 *14 0.1158175
4 *14:4 0.118373
5 *14:5 0.1151373
6 *14:6 0.118373
7 *14:7 0.03057831
8 *14:8 0.03877952
9 *14:9 0.03119876
10 *14:10 0.05046374
11 *14:11 0.0176613
12 *14:12 0.05798481

*RES
1 *14:4 *14:5 1.388889
2 *14:6 *14:7 1.388889
3 *14:8 *14:9 2.777778
4 *14:10 *14:11 2.777778
5 *30:A *14:9 0.6852942
6 *14:11 *23:Q 0.09117648
7 *14:12 *14:8 0.3665496
8 *14:8 *14:7 1.68008
9 *14:12 *14:10 1.664706
10 *14:5 *14 5.730909
11 *14:4 *14:6 7.847558

*END

*D_NET *11 2.368572

*CONN
*I *23:SE I *L 562.4 *C 5.686 5.046
*I *24:SE I *L 562.4 *C 2.6 3.154
*I *25:SE I *L 562.4 *C 1.011 1.446
*I *26:SE I *L 562.4 *C 4.132 1.954
*I *27:SE I *L 562.4 *C 5.834 1.446
*I *28:SE I *L 562.4 *C 4.25 3.86
*I *29:SE I *L 562.4 *C 0.863 3.846
*I *18:SE I *L 562.4 *C 3.318 5.554
*P *11 I *C 1.7 6.383
*N *11:10 *C 4.25 3.86
*N *11:11 *C 4.25 3.86
*N *11:12 *C 5.9 4.7
*N *11:13 *C 5.9 4.7
*N *11:14 *C 2.9 3.98
*N *11:15 *C 2.9 3.98
*N *11:16 *C 2.6 3.154
*N *11:17 *C 4.1 5.6
*N *11:18 *C 4.1 5.6
*N *11:19 *C 5.9 3.86
*N *11:20 *C 5.9 3.86
*N *11:21 *C 0.5 3.62
*N *11:22 *C 0.5 3.62
*N *11:23 *C 3.8 1.7
*N *11:24 *C 3.8 1.7
*N *11:25 *C 5.9 1.1
*N *11:26 *C 5.9 1.1
*N *11:27 *C 0.2 3.8
*N *11:28 *C 0.2 3.8
*N *11:29 *C 1.7 3.62
*N *11:30 *C 1.7 3.62
*N *11:31 *C 4.1 3.965
*N *11:32 *C 4.1 3.965
*N *11:33 *C 0.5 1.4
*N *11:34 *C 0.5 1.4
*N *11:35 *C 0.65 3.8
*N *11:36 *C 0.8 1.4
*N *11:37 *C 3.5 5.6
*N *11:38 *C 3.95 1.7
*N *11:39 *C 6.2 1.1
*N *11:40 *C 6.05 4.7
*N *11:41 *C 5.9 5.0
*N *11:42 *C 6.05 5.0
*N *11:43 *C 6.05 1.4
*N *11:44 *C 6.2 1.4
*N *11:45 *C 0.2 3.62
*N *11:46 *C 2.6 3.38
*N *11:47 *C 2.9 3.38
*N *11:48 *C 3.8 2.42
*N *11:49 *C 4.1 2.42
*N *11:50 *C 1.7 3.98

*CAP
1 *23:SE 0.003068316
2 *24:SE 0.0
3 *25:SE 0.002448218
4 *26:SE 0.01554656
5 *27:SE 0.003080976
6 *28:SE 0.0
7 *29:SE 0.00263479
8 *18:SE 0.003682855
9 *11 0.123697
10 *11:10 0.005835736
11 *11:11 0.0981883
12 *11:12 0.04389093
13 *11:13 0.01270042
14 *11:14 0.09649023
15 *11:15 0.02937194
16 *11:16 0.01901484
17 *11:17 0.0861553
18 *11:18 0.04531517
19 *11:19 0.06646192
20 *11:20 0.160524
21 *11:21 0.06003752
22 *11:22 0.1105085
23 *11:23 0.03307782
24 *11:24 0.01592162
25 *11:25 0.117392
26 *11:26 0.01947511
27 *11:27 0.007036701
28 *11:28 0.0434407
29 *11:29 0.08065455
30 *11:30 0.1229381
31 *11:31 0.07229924
32 *11:32 0.1469345
33 *11:33 0.09462832
34 *11:34 0.0315014
35 *11:35 0.04607549
36 *11:36 0.03394962
37 *11:37 0.04899803
38 *11:38 0.03214833
39 *11:39 0.0304876
40 *11:40 0.02527983
41 *11:41 0.01695716
42 *11:42 0.02646824
43 *11:43 0.01115517
44 *11:44 0.01908669
45 *11:45 0.02367585
46 *11:46 0.03549776
47 *11:47 0.0466572
48 *11:48 0.05020928
49 *11:49 0.07874849
50 *11:50 0.0692241

*RES
1 *11:10 *28:SE 1.388889
2 *11:11 *11:10 0.3472223
3 *11:12 *11:13 0.6944445
4 *11:14 *11:15 0.3472223
5 *11:16 *24:SE 0.6944445
6 *11:17 *11:18 0.6944445
7 *11:19 *11:20 0.3472223
8 *11:21 *11:22 0.3472223
9 *11:23 *11:24 1.388889
10 *11:25 *11:26 0.6944445
11 *11:27 *11:28 0.6944445
12 *11:29 *11:30 0.3472223
13 *11:31 *11:32 0.1736111
14 *11:33 *11:34 0.6944445
15 *11:28 *11:35 1.245405
16 *11:34 *11:36 0.8119305
17 *11:35 *29:SE 0.1
18 *11:36 *25:SE 0.1
19 *18:SE *11:37 0.1852941
20 *11:37 *11:18 1.678001
21 *11:24 *11:38 0.3868287
22 *11:38 *26:SE 0.6970589
23 *11:26 *11:39 0.8119305
24 *11:13 *11:40 0.3868287
25 *11:41 *11:42 0.3723691
26 *11:41 *23:SE 0.1
27 *11:43 *27:SE 0.1852941
28 *11:43 *11:44 0.3596548
29 *11:40 *11:42 0.782353
30 *11:39 *11:44 0.782353
31 *11:45 *11:22 0.7946337
32 *11:45 *11:27 0.414762
33 *11:33 *11:22 6.429141
34 *11:30 *11 8.025743
35 *11:16 *11:46 0.5693473
36 *11:46 *11:47 0.7925326
37 *11:47 *11:15 1.661258
38 *11:23 *11:48 2.032541
39 *11:48 *11:49 0.7925326
40 *11:49 *11:32 4.445206
41 *11:32 *11:17 4.708456
42 *11:25 *11:20 8.017429
43 *11:20 *11:12 2.369869
44 *11:21 *11:29 1.907193
45 *11:29 *11:50 0.52
46 *11:50 *11:14 1.902439
47 *11:14 *11:31 1.938333
48 *11:31 *11:11 0.245
49 *11:11 *11:19 2.655552

*END

*D_NET *15 0.4165694

*CONN
*I *24:Q O *L 0.0 *D SAEDRVT14_FSDPRBQ_V2_0P5 *C 4.311 3.203
*I *31:A I *L 444.9 *C 5.233 2.6
*P *15 O *C 6.681 3.2
*N *15:4 *C 4.429 3.2
*N *15:5 *C 4.429 3.2
*N *15:6 *C 5.0 3.14
*N *15:7 *C 5.0 3.14
*N *15:8 *C 5.0 2.6
*N *15:9 *C 5.0 2.6
*N *15:10 *C 5.233 2.6

*CAP
1 *24:Q 0.02036475
2 *31:A 0.0
3 *15 0.09171512
4 *15:4 0.041861
5 *15:5 0.01849459
6 *15:6 0.03203821
7 *15:7 0.1330614
8 *15:8 0.03374299
9 *15:9 0.02230562
10 *15:10 0.02298576

*RES
1 *24:Q *15:5 0.7544119
2 *15:4 *15:5 1.388889
3 *15:6 *15:7 0.6944445
4 *15:8 *15:9 1.388889
5 *15:10 *31:A 2.777778
6 *15:4 *15:7 1.972647
7 *15:7 *15 4.894118
8 *15:9 *15:10 0.6391556
9 *15:8 *15:6 1.519358

*END

*D_NET *10 0.1296454

*CONN
*I *32:A I *L 7320.0 *C 1.352 4.893
*P *10 I *C 0.017 4.7
*N *10:3 *C 0.5 4.7
*N *10:4 *C 0.5 5.0
*N *10:5 *C 0.8 5.0

*CAP
1 *32:A 0.005042575
2 *10 0.02199617
3 *10:3 0.0388666
4 *10:4 0.03778397
5 *10:5 0.02595611

*RES
1 *10 *10:3 1.327165
2 *10:3 *10:4 0.7925326
3 *10:4 *10:5 0.7925326
4 *32:A *10:5 0.2647059

*END

*D_NET *1 0.9419823

*CONN
*I *25:Q O *L 0.0 *D SAEDRVT14_FSDPRBQ_V2_0P5 *C 2.683 1.397
*I *33:A I *L 444.9 *C 3.093 2.595
*P *1 O *C 6.681 4.7
*N *1:4 *C 2.9 1.4
*N *1:5 *C 2.9 1.4
*N *1:6 *C 3.2 1.7
*N *1:7 *C 3.2 1.7
*N *1:8 *C 3.2 2.6
*N *1:9 *C 3.2 2.6
*N *1:10 *C 6.5 4.7
*N *1:11 *C 6.5 4.7
*N *1:12 *C 6.5 2.96
*N *1:13 *C 6.5 2.96
*N *1:14 *C 3.35 2.6
*N *1:15 *C 3.35 2.6
*N *1:16 *C 2.9 1.7
*N *1:17 *C 4.7 2.6
*N *1:18 *C 4.7 2.9
*N *1:19 *C 6.244 4.7

*CAP
1 *25:Q 0.02354796
2 *33:A 0.02973487
3 *1 0.006733919
4 *1:4 0.03524033
5 *1:5 0.02354796
6 *1:6 0.044632
7 *1:7 0.02260069
8 *1:8 0.044632
9 *1:9 0.007040515
10 *1:10 0.08038509
11 *1:11 0.01830282
12 *1:12 0.07970493
13 *1:13 0.1289302
14 *1:14 0.06961772
15 *1:15 0.02973487
16 *1:16 0.05852117
17 *1:17 0.07921647
18 *1:18 0.1476098
19 *1:19 0.01224905

*RES
1 *1:4 *1:5 2.777778
2 *1:6 *1:7 1.388889
3 *1:8 *1:9 1.388889
4 *1:10 *1:11 1.388889
5 *1:12 *1:13 0.6944445
6 *1:14 *1:15 2.777778
7 *25:Q *1:5 0.5382354
8 *33:A *1:15 0.6558824
9 *1:4 *1:16 0.7925326
10 *1:16 *1:7 0.8058224
11 *1:9 *1:14 0.3596547
12 *1:14 *1:17 3.879125
13 *1:17 *1:18 0.7925326
14 *1:18 *1:13 5.02353
15 *1:19 *1:11 0.6695535
16 *1:11 *1 0.4409388
17 *1:6 *1:8 2.564033
18 *1:12 *1:10 5.029946

*END

*D_NET *2 0.4452585

*CONN
*I *26:Q O *L 0.0 *D SAEDRVT14_FSDPRBQ_V2_0P5 *C 2.461 2.003
*I *34:A I *L 444.9 *C 0.947 0.804
*P *2 O *C 1.7 0.017
*N *2:4 *C 2.343 2.0
*N *2:5 *C 2.343 2.0
*N *2:6 *C 2.0 1.94
*N *2:7 *C 2.0 1.94
*N *2:8 *C 1.099 0.8
*N *2:9 *C 1.099 0.8
*N *2:10 *C 1.7 0.74
*N *2:11 *C 1.7 0.74
*N *2:12 *C 2.0 0.8

*CAP
1 *26:Q 0.01711136
2 *34:A 0.01703461
3 *2 0.03438467
4 *2:4 0.04664801
5 *2:5 0.01524119
6 *2:6 0.05043896
7 *2:7 0.04613325
8 *2:8 0.04713096
9 *2:9 0.01516444
10 *2:10 0.04426539
11 *2:11 0.0466162
12 *2:12 0.06508952

*RES
1 *26:Q *2:5 0.7544119
2 *2:4 *2:5 1.388889
3 *2:6 *2:7 0.6944445
4 *34:A *2:9 0.7544119
5 *2:8 *2:9 1.388889
6 *2:10 *2:11 0.6944445
7 *2:8 *2:11 2.00897
8 *2:7 *2:4 1.288088
9 *2 *2:10 2.043842
10 *2:10 *2:12 0.882353
11 *2:12 *2:6 3.264706

*END

*D_NET *3 0.3203391

*CONN
*I *27:Q O *L 0.0 *D SAEDRVT14_FSDPRBQ_V2_0P5 *C 4.163 1.397
*I *35:A I *L 444.9 *C 3.457 0.804
*P *3 O *C 3.2 0.017
*N *3:4 *C 3.2 0.8
*N *3:5 *C 3.2 0.8
*N *3:6 *C 3.35 0.8
*N *3:7 *C 3.35 0.8
*N *3:8 *C 4.045 1.4
*N *3:9 *C 4.045 1.4
*N *3:10 *C 3.2 1.34
*N *3:11 *C 3.2 1.34

*CAP
1 *27:Q 0.01630624
2 *35:A 0.01689742
3 *3 0.03124026
4 *3:4 0.05906771
5 *3:5 0.007644662
6 *3:6 0.008324807
7 *3:7 0.01689742
8 *3:8 0.06195829
9 *3:9 0.01443607
10 *3:10 0.02612267
11 *3:11 0.06144353

*RES
1 *3:4 *3:5 1.388889
2 *3:6 *3:7 2.777778
3 *27:Q *3:9 0.7544118
4 *3:8 *3:9 1.388889
5 *3:10 *3:11 0.6944445
6 *3:7 *35:A 0.2147059
7 *3:5 *3:6 0.3596548
8 *3:11 *3:8 2.690736
9 *3 *3:4 2.205066
10 *3:4 *3:10 1.512072

*END

*D_NET *4 0.6506975

*CONN
*I *28:Q O *L 0.0 *D SAEDRVT14_FSDPRBQ_V2_0P5 *C 6.087 3.797
*I *36:A I *L 444.9 *C 5.683 0.804
*P *4 O *C 5.0 0.017
*N *4:4 *C 6.2 3.8
*N *4:5 *C 6.2 3.8
*N *4:6 *C 6.2 3.8
*N *4:7 *C 6.2 0.8
*N *4:8 *C 6.2 0.8
*N *4:9 *C 5.9 0.8
*N *4:10 *C 5.9 0.8
*N *4:11 *C 5.0 0.14
*N *4:12 *C 5.0 0.14
*N *4:13 *C 6.2 0.26
*N *4:14 *C 6.2 0.26
*N *4:15 *C 6.579 3.8
*N *4:16 *C 5.0 0.454

*CAP
1 *28:Q 0.01404491
2 *36:A 0.02368009
3 *4 0.001882804
4 *4:4 0.01841533
5 *4:5 0.01404491
6 *4:6 0.1248904
7 *4:7 0.1532762
8 *4:8 0.02132593
9 *4:9 0.02200608
10 *4:10 0.02368009
11 *4:11 0.01643117
12 *4:12 0.07647038
13 *4:13 0.0270255
14 *4:14 0.07749501
15 *4:15 0.01909548
16 *4:16 0.01693329

*RES
1 *4:4 *4:5 2.777778
2 *4:6 *4:4 1.388889
3 *4:7 *4:8 1.388889
4 *4:9 *4:10 2.777778
5 *4 *4:11 0.00509503
6 *4:11 *4:12 0.6944445
7 *4:13 *4:14 0.6944445
8 *36:A *4:10 0.5382354
9 *28:Q *4:5 0.232353
10 *4:12 *4:14 3.258824
11 *4:9 *4:8 0.822947
12 *4:4 *4:15 1.029918
13 *4:11 *4:16 0.8413305
14 *4:13 *4:7 1.512072
15 *4:7 *4:6 8.727036

*END

*D_NET *5 0.418181

*CONN
*I *29:Q O *L 0.0 *D SAEDRVT14_FSDPRBQ_V2_0P5 *C 2.535 3.797
*I *37:A I *L 444.9 *C 3.235 3.795
*P *5 O *C 3.2 6.383
*N *5:4 *C 2.687 3.8
*N *5:5 *C 2.687 3.8
*N *5:6 *C 3.2 3.8
*N *5:7 *C 3.2 3.8
*N *5:8 *C 3.05 3.8
*N *5:9 *C 3.05 3.8

*CAP
1 *29:Q 0.02465593
2 *37:A 0.0268758
3 *5 0.1109151
4 *5:4 0.03102151
5 *5:5 0.02278577
6 *5:6 0.1101409
7 *5:7 0.01562218
8 *5:8 0.04928807
9 *5:9 0.0268758

*RES
1 *29:Q *5:5 0.7544119
2 *5:4 *5:5 1.388889
3 *5:6 *5:7 0.3472223
4 *5:8 *5:9 2.777778
5 *5:9 *37:A 0.4441177
6 *5:4 *5:8 0.9994141
7 *5:8 *5:7 0.3424923
8 *5:6 *5 7.496161

*END

*D_NET *12 0.5894713

*CONN
*I *29:SI I *L 348.9 *C 0.844 3.774
*P *12 I *C 3.8 6.383
*N *12:3 *C 3.8 5.9
*N *12:4 *C 3.8 5.9
*N *12:5 *C 0.5 5.9
*N *12:6 *C 0.5 5.9
*N *12:7 *C 0.5 3.8
*N *12:8 *C 0.5 3.8

*CAP
1 *29:SI 0.02246905
2 *12 0.02351027
3 *12:3 0.02351027
4 *12:4 0.1535181
5 *12:5 0.09523828
6 *12:6 0.1535181
7 *12:7 0.09523828
8 *12:8 0.02246905

*RES
1 *12:3 *12:4 0.6944445
2 *12:5 *12:6 0.6944445
3 *12:7 *12:8 0.6944445
4 *12:8 *29:SI 0.7911765
5 *12:6 *12:4 9.611165
6 *12:7 *12:5 6.074232
7 *12:3 *12 1.315588

*END

*D_NET *8 0.1164983

*CONN
*I *16:X O *L 0.0 *D SAEDRVT14_BUF_ECO_1 *C 0.742 2.0
*P *8 O *C 0.017 1.7
*N *8:3 *C 0.742 2.0
*N *8:4 *C 0.5 1.7
*N *8:5 *C 0.5 2.0

*CAP
1 *16:X 0.0
2 *8 0.02539377
3 *8:3 0.01731169
4 *8:4 0.04093745
5 *8:5 0.03285536

*RES
1 *8:3 *16:X 2.777778
2 *8 *8:4 1.327165
3 *8:4 *8:5 0.7925326
4 *8:5 *8:3 0.6393097

*END

*D_NET *38 0.1111963

*CONN
*I *39:A I *L 4398.0 *C 0.935 4.507
*I *32:X O *L 0.0 *D SAEDRVT14_INV_S_20 *C 1.346 5.147
*N *38:3 *C 0.935 4.507
*N *38:4 *C 0.935 5.0
*N *38:5 *C 0.935 5.0

*CAP
1 *39:A 0.0
2 *32:X 0.02168223
3 *38:3 0.03357586
4 *38:4 0.034256
5 *38:5 0.02168223

*RES
1 *38:3 *39:A 1.388889
2 *38:4 *38:5 0.6944445
3 *38:5 *32:X 0.3794118
4 *38:3 *38:4 1.362278

*END

*D_NET *40 1.718861

*CONN
*I *29:CK I *L 327.7 *C 1.616 3.911
*I *28:CK I *L 327.7 *C 5.155 3.911
*I *27:CK I *L 327.7 *C 5.125 1.511
*I *26:CK I *L 327.7 *C 3.461 1.889
*I *25:CK I *L 327.7 *C 1.7 1.511
*I *24:CK I *L 327.7 *C 3.417 3.089
*I *23:CK I *L 327.7 *C 5.0 5.111
*I *18:CK I *L 327.7 *C 2.647 5.489
*I *39:X O *L 0.0 *D SAEDRVT14_INV_S_12 *C 1.063 4.253
*N *40:10 *C 1.7 1.511
*N *40:11 *C 1.46 4.4
*N *40:12 *C 1.46 4.4
*N *40:13 *C 1.616 3.911
*N *40:14 *C 3.2 3.5
*N *40:15 *C 3.2 3.5
*N *40:16 *C 1.4 3.5
*N *40:17 *C 1.4 3.5
*N *40:18 *C 5.155 3.911
*N *40:19 *C 3.5 1.1
*N *40:20 *C 3.5 1.1
*N *40:21 *C 5.125 1.1
*N *40:22 *C 5.125 1.1
*N *40:23 *C 5.125 1.511
*N *40:24 *C 5.0 3.5
*N *40:25 *C 5.0 3.5
*N *40:26 *C 3.417 3.089
*N *40:27 *C 5.0 5.111
*N *40:28 *C 3.5 1.7
*N *40:29 *C 3.5 1.7
*N *40:30 *C 2.6 3.5
*N *40:31 *C 2.6 3.5
*N *40:32 *C 2.6 5.3
*N *40:33 *C 2.6 5.3
*N *40:34 *C 3.35 1.7
*N *40:35 *C 1.4 2.42
*N *40:36 *C 1.4 3.86
*N *40:37 *C 1.7 2.42
*N *40:38 *C 3.2 2.9
*N *40:39 *C 3.417 2.9
*N *40:40 *C 3.5 2.9
*N *40:41 *C 5.0 3.911

*CAP
1 *29:CK 0.0
2 *28:CK 0.0
3 *27:CK 0.0
4 *26:CK 0.01287405
5 *25:CK 0.0
6 *24:CK 0.0
7 *23:CK 0.0
8 *18:CK 0.0244463
9 *39:X 0.02822965
10 *40:10 0.03541196
11 *40:11 0.03652342
12 *40:12 0.02686936
13 *40:13 0.02024892
14 *40:14 0.1019896
15 *40:15 0.02543834
16 *40:16 0.06236795
17 *40:17 0.06377349
18 *40:18 0.01692293
19 *40:19 0.02897199
20 *40:20 0.08330262
21 *40:21 0.02858619
22 *40:22 0.08320855
23 *40:23 0.02858619
24 *40:24 0.07484857
25 *40:25 0.02191998
26 *40:26 0.01136831
27 *40:27 0.05423504
28 *40:28 0.08489487
29 *40:29 0.01410552
30 *40:30 0.08946561
31 *40:31 0.09622178
32 *40:32 0.09702413
33 *40:33 0.0244463
34 *40:34 0.02697957
35 *40:35 0.05741386
36 *40:36 0.08141472
37 *40:37 0.0516695
38 *40:38 0.03919212
39 *40:39 0.02991644
40 *40:40 0.06079607
41 *40:41 0.09519721

*RES
1 *40:10 *25:CK 0.3472223
2 *40:11 *40:12 0.6944445
3 *40:13 *29:CK 1.388889
4 *40:14 *40:15 0.3472223
5 *40:16 *40:17 0.3472223
6 *40:18 *28:CK 1.388889
7 *40:19 *40:20 1.388889
8 *40:21 *40:22 0.3472223
9 *40:23 *27:CK 0.3472223
10 *40:24 *40:25 0.3472223
11 *40:26 *24:CK 0.6944445
12 *40:27 *23:CK 1.388889
13 *40:28 *40:29 0.6944445
14 *40:30 *40:31 0.3472223
15 *40:32 *40:33 0.6944445
16 *39:X *40:12 0.382353
17 *40:33 *18:CK 0.5058824
18 *40:34 *26:CK 0.6058824
19 *40:34 *40:29 0.379193
20 *40:20 *40:22 4.683485
21 *40:35 *40:17 3.08098
22 *40:17 *40:36 0.967453
23 *40:36 *40:11 1.367647
24 *40:35 *40:37 0.7925326
25 *40:36 *40:13 0.5352942
26 *40:10 *40:37 2.571851
27 *40:31 *40:32 5.191671
28 *40:38 *40:39 0.5572652
29 *40:39 *40:40 0.1821774
30 *40:38 *40:15 1.661258
31 *40:39 *40:26 0.442027
32 *40:19 *40:28 1.68008
33 *40:28 *40:40 3.430809
34 *40:25 *40:41 1.108088
35 *40:41 *40:27 3.437739
36 *40:41 *40:18 0.3558824
37 *40:21 *40:23 1.10095
38 *40:16 *40:30 1.907479
39 *40:30 *40:14 0.9090909
40 *40:14 *40:24 2.905113

*END

*D_NET *41 0.1635513

*CONN
*I *18:D I *L 417.6 *C 3.5 5.7
*I *42:X O *L 0.0 *D SAEDRVT14_BUF_ECO_1 *C 3.275 5.0
*N *41:3 *C 3.275 5.0
*N *41:4 *C 3.5 5.3
*N *41:5 *C 3.5 5.3
*N *41:6 *C 3.5 5.7
*N *41:7 *C 3.2 5.0
*N *41:8 *C 3.2 5.3

*CAP
1 *18:D 0.0
2 *42:X 0.0
3 *41:3 0.01747807
4 *41:4 0.02544983
5 *41:5 0.02092162
6 *41:6 0.02544983
7 *41:7 0.03587172
8 *41:8 0.03838019

*RES
1 *41:3 *42:X 2.777778
2 *41:4 *41:5 0.6944445
3 *41:6 *18:D 0.6944445
4 *41:7 *41:3 0.1517809
5 *41:7 *41:8 0.7925326
6 *41:8 *41:5 0.8058223
7 *41:4 *41:6 1.063476

*END

*D_NET *43 0.6705108

*CONN
*I *42:A I *L 375.1 *C 3.571 4.988
*I *18:SI I *L 348.9 *C 3.338 5.626
*I *30:X O *L 0.0 *D SAEDRVT14_BUF_S_1 *C 3.643 4.4
*N *43:4 *C 4.7 5.6
*N *43:5 *C 4.7 5.6
*N *43:6 *C 3.8 5.0
*N *43:7 *C 3.8 5.0
*N *43:8 *C 3.643 4.4
*N *43:9 *C 3.2 5.6
*N *43:10 *C 3.2 6.2
*N *43:11 *C 4.7 6.2
*N *43:12 *C 3.65 5.0
*N *43:13 *C 3.8 5.3
*N *43:14 *C 4.7 5.3

*CAP
1 *42:A 0.03145408
2 *18:SI 0.003065603
3 *30:X 0.0
4 *43:4 0.02539167
5 *43:5 0.04437838
6 *43:6 0.0280436
7 *43:7 0.030519
8 *43:8 0.04711337
9 *43:9 0.04121865
10 *43:10 0.1039642
11 *43:11 0.1101895
12 *43:12 0.0567859
13 *43:13 0.07115065
14 *43:14 0.07723617

*RES
1 *43:4 *43:5 2.777778
2 *43:6 *43:7 2.777778
3 *43:8 *30:X 2.777778
4 *43:9 *43:10 1.674886
5 *43:9 *18:SI 0.05
6 *43:10 *43:11 4.313982
7 *42:A *43:7 0.5735295
8 *43:5 *43:11 1.678001
9 *43:8 *43:12 1.764706
10 *43:12 *43:6 0.3513561
11 *43:6 *43:13 0.7968829
12 *43:13 *43:14 2.550699
13 *43:14 *43:4 0.782353

*END

*D_NET *44 0.2243177

*CONN
*I *29:D I *L 417.6 *C 0.805 3.7
*I *20:X O *L 0.0 *D SAEDRVT14_BUF_S_1 *C 0.907 2.589
*N *44:3 *C 0.8 3.2
*N *44:4 *C 0.8 3.2
*N *44:5 *C 0.8 2.6
*N *44:6 *C 0.8 2.6
*N *44:7 *C 0.8 2.6
*N *44:8 *C 1.179 2.6

*CAP
1 *29:D 0.03779856
2 *20:X 0.02099026
3 *44:3 0.03393691
4 *44:4 0.03779856
5 *44:5 0.03393691
6 *44:6 0.01943312
7 *44:7 0.02099026
8 *44:8 0.01943312

*RES
1 *44:3 *44:4 0.6944445
2 *44:5 *44:6 0.6944445
3 *44:6 *44:7 2.777778
4 *44:7 *20:X 0.2088235
5 *44:6 *44:8 1.029918
6 *44:4 *29:D 1.417647
7 *44:5 *44:3 1.656403

*END

*D_NET *45 0.1872465

*CONN
*I *28:D I *L 417.6 *C 4.357 3.7
*I *28:SI I *L 348.9 *C 4.396 3.774
*I *37:X O *L 0.0 *D SAEDRVT14_BUF_S_1 *C 3.421 3.8
*N *45:4 *C 3.421 3.8
*N *45:5 *C 3.35 3.5
*N *45:6 *C 4.25 3.5

*CAP
1 *28:D 0.01777604
2 *28:SI 0.005715896
3 *37:X 0.0
4 *45:4 0.02995601
5 *45:5 0.07584723
6 *45:6 0.05795137

*RES
1 *45:4 *37:X 2.777778
2 *28:D *28:SI 0.2058824
3 *45:5 *45:6 2.554084
4 *45:5 *45:4 0.782353
5 *45:6 *28:D 0.5352942

*END

*D_NET *46 0.1199847

*CONN
*I *27:D I *L 417.6 *C 5.893 1.3
*I *27:SI I *L 348.9 *C 5.854 1.374
*I *36:X O *L 0.0 *D SAEDRVT14_BUF_S_1 *C 5.493 0.8
*N *46:4 *C 5.493 0.8
*N *46:5 *C 5.45 1.1
*N *46:6 *C 5.75 1.1

*CAP
1 *27:D 0.01588264
2 *27:SI 0.004747174
3 *36:X 0.0
4 *46:4 0.028429
5 *46:5 0.0441097
6 *46:6 0.02681617

*RES
1 *46:4 *36:X 2.777778
2 *27:SI *27:D 0.2264706
3 *46:4 *46:5 0.8823529
4 *46:5 *46:6 0.7925326
5 *46:6 *27:D 0.5382354

*END

*D_NET *47 0.1917682

*CONN
*I *26:D I *L 417.6 *C 4.132 2.099
*I *26:SI I *L 348.9 *C 4.152 2.026
*I *35:X O *L 0.0 *D SAEDRVT14_BUF_S_1 *C 3.648 0.8
*N *47:4 *C 3.648 0.8
*N *47:5 *C 4.132 0.8
*N *47:6 *C 4.132 0.8
*N *47:7 *C 4.132 2.099

*CAP
1 *26:D 0.004433561
2 *26:SI 0.005113706
3 *35:X 0.0
4 *47:4 0.02910346
5 *47:5 0.06234708
6 *47:6 0.02910346
7 *47:7 0.06166693

*RES
1 *47:4 *35:X 2.777778
2 *47:5 *47:6 0.6944445
3 *47:7 *26:D 1.388889
4 *26:SI *26:D 0.1955882
5 *47:4 *47:6 1.351074
6 *47:5 *47:7 3.725632

*END

*D_NET *48 0.09419893

*CONN
*I *25:D I *L 417.6 *C 0.953 1.3
*I *25:SI I *L 348.9 *C 0.992 1.374
*I *34:X O *L 0.0 *D SAEDRVT14_BUF_S_1 *C 0.76 0.8
*N *48:4 *C 0.76 0.8
*N *48:5 *C 0.8 1.1
*N *48:6 *C 0.95 1.1

*CAP
1 *25:D 0.01366162
2 *25:SI 0.003521889
3 *34:X 0.0
4 *48:4 0.02619451
5 *48:5 0.03343784
6 *48:6 0.01738307

*RES
1 *48:4 *34:X 2.777778
2 *25:D *25:SI 0.2264706
3 *48:4 *48:5 0.882353
4 *48:5 *48:6 0.3596547
5 *48:6 *25:D 0.5085295

*END

*D_NET *49 0.1641513

*CONN
*I *24:D I *L 417.6 *C 2.526 3.301
*I *50:X O *L 0.0 *D SAEDRVT14_BUF_ECO_1 *C 2.017 3.2
*N *49:3 *C 2.017 3.2
*N *49:4 *C 2.3 3.5
*N *49:5 *C 2.3 3.5
*N *49:6 *C 2.526 3.301
*N *49:7 *C 2.0 3.5
*N *49:8 *C 2.3 3.38

*CAP
1 *24:D 0.0
2 *50:X 0.0
3 *49:3 0.02540219
4 *49:4 0.0110037
5 *49:5 0.01867573
6 *49:6 0.02618643
7 *49:7 0.04501301
8 *49:8 0.03787028

*RES
1 *49:3 *50:X 2.777778
2 *49:4 *49:5 0.6944445
3 *49:6 *24:D 1.388889
4 *49:3 *49:7 1.095294
5 *49:7 *49:5 0.8058223
6 *49:8 *49:4 0.2613381
7 *49:8 *49:6 0.5647058

*END

*D_NET *51 0.2828674

*CONN
*I *50:A I *L 375.1 *C 2.313 3.212
*I *24:SI I *L 348.9 *C 2.739 3.2
*I *33:X O *L 0.0 *D SAEDRVT14_BUF_S_1 *C 2.9 2.6
*N *51:4 *C 2.9 2.6
*N *51:5 *C 2.739 2.6
*N *51:6 *C 2.739 2.6
*N *51:7 *C 2.739 3.2
*N *51:8 *C 2.3 2.6

*CAP
1 *50:A 0.0263001
2 *24:SI 0.01593834
3 *33:X 0.03626312
4 *51:4 0.02268011
5 *51:5 0.04025204
6 *51:6 0.02268011
7 *51:7 0.05619037
8 *51:8 0.06256323

*RES
1 *51:4 *33:X 2.777778
2 *51:5 *51:6 0.6944445
3 *51:7 *24:SI 0.6944445
4 *51:8 *50:A 1.27353
5 *51:8 *33:X 1.667461
6 *51:6 *51:4 0.4416483
7 *51:5 *51:7 1.656403

*END

*D_NET *52 0.3281026

*CONN
*I *23:D I *L 417.6 *C 5.745 4.9
*I *23:SI I *L 348.9 *C 5.706 4.974
*I *31:X O *L 0.0 *D SAEDRVT14_BUF_S_1 *C 5.421 2.589
*N *52:4 *C 5.6 4.7
*N *52:5 *C 5.6 4.7
*N *52:6 *C 5.6 2.6
*N *52:7 *C 5.6 2.6
*N *52:8 *C 5.6 2.6
*N *52:9 *C 5.979 2.6

*CAP
1 *23:D 0.02415133
2 *23:SI 0.003107263
3 *31:X 0.02650051
4 *52:4 0.09364873
5 *52:5 0.02036393
6 *52:6 0.09364873
7 *52:7 0.01975069
8 *52:8 0.02650051
9 *52:9 0.02043084

*RES
1 *52:4 *52:5 1.388889
2 *52:6 *52:7 1.388889
3 *52:7 *52:8 2.777778
4 *31:X *52:8 0.4205883
5 *52:7 *52:9 1.029918
6 *52:5 *23:D 0.5382354
7 *23:D *23:SI 0.1676471
8 *52:6 *52:4 6.084527

*END
